@<TRIPOS>MOLECULE
C2B
   15    14     1     0     0
SMALL
RESP Charge
 
 
@<TRIPOS>ATOM
      1 N          -0.3090  118.8350   47.2450 N         1 C2B     -0.487894
      2 H          -0.5530  118.0120   47.1910 H         1 C2B      0.297534
      3 CA         -0.7770  119.5370   48.4530 CT        1 C2B     -0.011454
      4 HA         -0.4730  120.4510   48.3430 H1        1 C2B      0.074692
      5 CB         -2.3160  119.4750   48.5500 CT        1 C2B      0.111696
      6 HB2        -2.5730  118.6290   48.9480 HC        1 C2B     -0.037293
      7 HB3        -2.6230  120.1740   49.1480 HC        1 C2B     -0.037293
      8 CG         -3.0310  119.6280   47.1900 CT        1 C2B      0.052468
      9 HG2        -2.4740  120.1630   46.6040 HC        1 C2B     -0.030912
     10 HG3        -3.1130  118.7520   46.7810 HC        1 C2B     -0.030912
     11 CD         -4.4220  120.2680   47.2660 C         1 C2B      0.569900
     12 OE1        -4.8300  120.7410   48.3430 O2        1 C2B     -0.638989
     13 OE2        -5.1110  120.3140   46.2300 O2        1 C2B     -0.717303
     14 C          -0.1660  119.0450   49.7620 C         1 C2B      0.531668
     15 O          -0.0080  119.8110   50.7110 YB        1 C2B     -0.519934
@<TRIPOS>BOND
     1    1    2 1
     2    1    3 1
     3    3    4 1
     4    3    5 1
     5    3   14 1
     6    5    6 1
     7    5    7 1
     8    5    8 1
     9    8    9 1
    10    8   10 1
    11    8   11 1
    12   11   12 1
    13   11   13 1
    14   14   15 1
@<TRIPOS>SUBSTRUCTURE
     1 C2B         1 TEMP              0 ****  ****    0 ROOT
