@<TRIPOS>MOLECULE
C2D
   12    11     1     0     0
SMALL
RESP Charge
 
 
@<TRIPOS>ATOM
      1 N           1.5170  124.6660   55.9030 N         1 C2D     -0.346288
      2 H           2.1650  125.0450   56.3220 H         1 C2D      0.258938
      3 CA          1.7450  124.4760   54.4750 CT        1 C2D     -0.111597
      4 HA          0.8940  124.5000   54.0100 H1        1 C2D      0.132472
      5 CB          2.6300  125.6010   53.9240 CT        1 C2D      0.063207
      6 HB2         3.3500  125.7770   54.5500 HC        1 C2D     -0.041058
      7 HB3         3.0400  125.3080   53.0960 HC        1 C2D     -0.041058
      8 CG          1.8580  126.8910   53.6720 C         1 C2D      0.582526
      9 OD1         1.3150  127.4670   54.6370 O2        1 C2D     -0.681662
     10 OD2         1.7930  127.3340   52.5000 O2        1 C2D     -0.636698
     11 C           2.4060  123.1190   54.2400 C         1 C2D      0.602003
     12 O           2.0270  122.3650   53.3500 YD        1 C2D     -0.536936
@<TRIPOS>BOND
     1    1    2 1
     2    1    3 1
     3    3    4 1
     4    3    5 1
     5    3   11 1
     6    5    6 1
     7    5    7 1
     8    5    8 1
     9    8    9 1
    10    8   10 1
    11   11   12 1
@<TRIPOS>SUBSTRUCTURE
     1 C2D         1 TEMP              0 ****  ****    0 ROOT
