@<TRIPOS>MOLECULE
C3C
    7     6     1     0     0
SMALL
RESP Charge
 
 
@<TRIPOS>ATOM
      1 N          18.0660  127.2840    6.6990 N         1 C3C     -0.032923
      2 H          18.3270  127.7230    6.0070 H         1 C3C      0.075351
      3 CA         17.7510  128.1140    7.8530 CT        1 C3C     -0.211813
      4 HA2        18.4030  127.9280    8.5470 H1        1 C3C      0.113097
      5 HA3        17.8660  129.0430    7.5980 H1        1 C3C      0.113097
      6 C          16.3650  127.9550    8.4510 C         1 C3C      0.718942
      7 O          15.3600  128.0320    7.7470 YG        1 C3C     -0.611223
@<TRIPOS>BOND
     1    1    2 1
     2    1    3 1
     3    3    4 1
     4    3    5 1
     5    3    6 1
     6    6    7 1
@<TRIPOS>SUBSTRUCTURE
     1 C3C         1 TEMP              0 ****  ****    0 ROOT
