@<TRIPOS>MOLECULE
C3D
   12    11     1     0     0
SMALL
RESP Charge
 
 
@<TRIPOS>ATOM
      1 N          15.1980  125.2240    9.9170 N         1 C3D     -0.516300
      2 H          16.0370  125.3160    9.7520 H         1 C3D      0.339324
      3 CA         14.6930  123.8580    9.7100 CT        1 C3D      0.038100
      4 HA         13.7570  123.9720    9.4830 H1        1 C3D      0.110621
      5 CB         15.4710  123.1660    8.5780 CT        1 C3D      0.226347
      6 HB2        16.4210  123.3030    8.7160 HC        1 C3D     -0.020269
      7 HB3        15.3130  122.2100    8.6220 HC        1 C3D     -0.020269
      8 CG         15.0900  123.6720    7.1930 C         1 C3D      0.460890
      9 OD1        14.0450  124.3490    7.0620 YH        1 C3D     -0.652690
     10 OD2        15.8400  123.3770    6.2310 O2        1 C3D     -0.595431
     11 C          14.7440  122.9630   10.9450 C         1 C3D      0.536600
     12 O          15.5780  123.1540   11.8330 O         1 C3D     -0.581900
@<TRIPOS>BOND
     1    1    2 1
     2    1    3 1
     3    3    4 1
     4    3    5 1
     5    3   11 1
     6    5    6 1
     7    5    7 1
     8    5    8 1
     9    8    9 1
    10    8   10 1
    11   11   12 1
@<TRIPOS>SUBSTRUCTURE
     1 C3D         1 TEMP              0 ****  ****    0 ROOT
