@<TRIPOS>MOLECULE
C4A
   12    11     1     0     0
SMALL
RESP Charge
 
 
@<TRIPOS>ATOM
      1 N          22.0690  109.8730   16.5100 N         1 C4A     -0.516300
      2 H          21.5580  110.3730   16.9880 H         1 C4A      0.243690
      3 CA         22.6670  108.7640   17.2620 CT        1 C4A      0.038100
      4 HA         23.4010  108.4580   16.7060 H1        1 C4A      0.060665
      5 CB         23.1090  109.2830   18.6320 CT        1 C4A      0.043845
      6 HB2        23.4060  108.5370   19.1760 HC        1 C4A      0.014399
      7 HB3        23.8710  109.8730   18.5200 HC        1 C4A      0.014399
      8 CG         21.9870  110.0360   19.3700 C         1 C4A      0.512982
      9 OD1        20.8460  110.0830   18.8550 YI        1 C4A     -0.433739
     10 OD2        22.2520  110.5830   20.4640 O2        1 C4A     -0.670650
     11 C          21.7890  107.5340   17.4800 C         1 C4A      0.536600
     12 O          21.9950  106.7860   18.4440 O         1 C4A     -0.581900
@<TRIPOS>BOND
     1    1    2 1
     2    1    3 1
     3    3    4 1
     4    3    5 1
     5    3   11 1
     6    5    6 1
     7    5    7 1
     8    5    8 1
     9    8    9 1
    10    8   10 1
    11   11   12 1
@<TRIPOS>SUBSTRUCTURE
     1 C4A         1 TEMP              0 ****  ****    0 ROOT
