@<TRIPOS>MOLECULE
C4D
   14    13     1     0     0
SMALL
RESP Charge
 
 
@<TRIPOS>ATOM
      1 N          20.1090  112.4280   21.5610 N         1 C4D     -0.181247
      2 H          20.9490  112.2740   21.4580 H         1 C4D      0.277271
      3 CA         19.5850  113.4890   20.7080 CT        1 C4D     -0.129751
      4 HA         19.3660  114.2450   21.2750 H1        1 C4D      0.058540
      5 CB         20.6460  113.8910   19.6910 CT        1 C4D     -0.029332
      6 HB2        20.9480  113.1040   19.2110 HC        1 C4D      0.020593
      7 HB3        20.2550  114.4900   19.0360 HC        1 C4D      0.020593
      8 CG         21.8250  114.5630   20.3470 C         1 C4D      0.617140
      9 OD1        21.9400  114.5630   21.5660 O         1 C4D     -0.540081
     10 ND2        22.7050  115.1360   19.5510 N         1 C4D     -0.870735
     11 HD21       23.3930  115.5300   19.8840 H         1 C4D      0.410974
     12 HD22       22.5910  115.1160   18.6990 H         1 C4D      0.393457
     13 C          18.3010  113.0820   20.0000 C         1 C4D      0.627364
     14 O          18.2920  112.1600   19.1880 YL        1 C4D     -0.434232
@<TRIPOS>BOND
     1    1    2 1
     2    1    3 1
     3    3    4 1
     4    3    5 1
     5    3   13 1
     6    5    6 1
     7    5    7 1
     8    5    8 1
     9    8    9 1
    10    8   10 1
    11   10   11 1
    12   10   12 1
    13   13   14 1
@<TRIPOS>SUBSTRUCTURE
     1 C4D         1 TEMP              0 ****  ****    0 ROOT
