@<TRIPOS>MOLECULE
C4E
   12    11     1     0     0
SMALL
RESP Charge
 
 
@<TRIPOS>ATOM
      1 N          14.7990  112.9600   14.8910 N         1 C4E     -0.516300
      2 H          14.9290  113.3610   15.6400 H         1 C4E      0.287948
      3 CA         15.4640  111.6720   14.7660 CT        1 C4E      0.038100
      4 HA         16.0280  111.7030   13.9780 H1        1 C4E      0.019915
      5 CB         16.3210  111.4080   16.0050 CT        1 C4E      0.095364
      6 HB2        16.9490  112.1380   16.1220 HC        1 C4E     -0.007857
      7 HB3        15.7530  111.3950   16.7910 HC        1 C4E     -0.007857
      8 CG         17.0800  110.1060   15.9160 C         1 C4E      0.463858
      9 OD1        17.0990  109.5110   14.8200 O2        1 C4E     -0.611457
     10 OD2        17.6690  109.6830   16.9320 YM        1 C4E     -0.477565
     11 C          14.4620  110.5410   14.5820 C         1 C4E      0.536600
     12 O          13.8970  110.0210   15.5510 O         1 C4E     -0.581900
@<TRIPOS>BOND
     1    1    2 1
     2    1    3 1
     3    3    4 1
     4    3    5 1
     5    3   11 1
     6    5    6 1
     7    5    7 1
     8    5    8 1
     9    8    9 1
    10    8   10 1
    11   11   12 1
@<TRIPOS>SUBSTRUCTURE
     1 C4E         1 TEMP              0 ****  ****    0 ROOT
