@<TRIPOS>MOLECULE
C4F
   15    14     1     0     0
SMALL
RESP Charge
 
 
@<TRIPOS>ATOM
      1 N          13.6760  107.3680   16.5430 N         1 C4F     -0.516300
      2 H          13.5540  108.0130   15.9870 H         1 C4F      0.444234
      3 CA         12.9340  107.5120   17.8000 CT        1 C4F      0.039700
      4 HA         13.3870  106.9790   18.4720 H1        1 C4F      0.098697
      5 CB         12.9040  108.9860   18.2370 CT        1 C4F     -0.012707
      6 HB2        12.5310  109.5170   17.5160 HC        1 C4F      0.010727
      7 HB3        12.3030  109.0740   18.9930 HC        1 C4F      0.010727
      8 CG         14.2550  109.5650   18.6190 CT        1 C4F     -0.055808
      9 HG2        14.8220  109.6040   17.8330 HC        1 C4F      0.038624
     10 HG3        14.1380  110.4760   18.9300 HC        1 C4F      0.038624
     11 CD         14.9500  108.7480   19.7010 C         1 C4F      0.342938
     12 OE1        14.2310  108.1150   20.5090 O2        1 C4F     -0.590042
     13 OE2        16.2060  108.7460   19.7510 YN        1 C4F     -0.288574
     14 C          11.4940  107.0110   17.6470 C         1 C4F      0.536600
     15 O          10.9720  106.9390   16.5290 O         1 C4F     -0.581900
@<TRIPOS>BOND
     1    1    2 1
     2    1    3 1
     3    3    4 1
     4    3    5 1
     5    3   14 1
     6    5    6 1
     7    5    7 1
     8    5    8 1
     9    8    9 1
    10    8   10 1
    11    8   11 1
    12   11   12 1
    13   11   13 1
    14   14   15 1
@<TRIPOS>SUBSTRUCTURE
     1 C4F         1 TEMP              0 ****  ****    0 ROOT
