@<TRIPOS>MOLECULE
Z1A
   17    17     1     0     0
SMALL
RESP Charge
 
 
@<TRIPOS>ATOM
      1 N          22.2950  112.2450    7.3250 N         1 Z1A     -0.415700
      2 H          22.8290  112.9080    7.8690 H         1 Z1A      0.263096
      3 CA         21.3530  112.7640    6.3240 CT        1 Z1A      0.018800
      4 HA         21.2920  112.0760    5.4810 H1        1 Z1A      0.089092
      5 CB         19.9480  112.9160    6.9380 CT        1 Z1A     -0.098332
      6 HB2        19.2860  113.4790    6.2810 HC        1 Z1A      0.103775
      7 HB3        19.5350  111.9210    7.1020 HC        1 Z1A      0.103775
      8 CG         19.9290  113.6130    8.2660 CC        1 Z1A      0.016407
      9 ND1        20.4590  113.0540    9.4080 NA        1 Z1A     -0.069084
     10 HD1        20.9190  112.1560    9.4460 H         1 Z1A      0.309370
     11 CE1        20.2690  113.8720   10.4260 CR        1 Z1A     -0.101621
     12 HE1        20.6180  113.6070   11.4240 H5        1 Z1A      0.178814
     13 NE2        19.6360  114.9440    9.9860 Y1        1 Z1A     -0.000974
     14 CD2        19.4140  114.8080    8.6380 CV        1 Z1A     -0.228539
     15 HD2        18.9030  115.5980    8.0870 H4        1 Z1A      0.237370
     16 C          21.7320  114.0660    5.6170 C         1 Z1A      0.597300
     17 O          20.9520  115.0240    5.5950 O         1 Z1A     -0.567900
@<TRIPOS>BOND
     1    1    2 1
     2    1    3 1
     3    3    4 1
     4    3    5 1
     5    3   16 1
     6    5    6 1
     7    5    7 1
     8    5    8 1
     9    8    9 1
    10    8   14 1
    11    9   10 1
    12    9   11 1
    13   11   12 1
    14   11   13 1
    15   13   14 1
    16   14   15 1
    17   16   17 1
@<TRIPOS>SUBSTRUCTURE
     1 Z1A         1 TEMP              0 ****  ****    0 ROOT
