@<TRIPOS>MOLECULE
Z1B
   12    11     1     0     0
SMALL
RESP Charge
 
 
@<TRIPOS>ATOM
      1 N          23.4700  116.6350    6.3460 N         1 Z1B     -0.516300
      2 H          23.7130  115.9740    6.8400 H         1 Z1B      0.303712
      3 CA         23.3040  117.9170    7.0160 CT        1 Z1B      0.038100
      4 HA         23.4730  118.5620    6.3120 H1        1 Z1B      0.123481
      5 CB         21.8830  118.0350    7.5760 CT        1 Z1B     -0.023706
      6 HB2        21.5960  118.9600    7.5270 HC        1 Z1B      0.038785
      7 HB3        21.2770  117.5200    7.0200 HC        1 Z1B      0.038785
      8 CG         21.7740  117.5550    9.0090 C         1 Z1B      0.837884
      9 OD1        22.3240  116.4740    9.3340 O2        1 Z1B     -0.639710
     10 OD2        21.1210  118.2660    9.8050 Y2        1 Z1B     -0.574947
     11 C          24.3200  118.2930    8.0850 C         1 Z1B      0.536600
     12 O          24.1460  119.3030    8.7690 O         1 Z1B     -0.581900
@<TRIPOS>BOND
     1    1    2 1
     2    1    3 1
     3    3    4 1
     4    3    5 1
     5    3   11 1
     6    5    6 1
     7    5    7 1
     8    5    8 1
     9    8    9 1
    10    8   10 1
    11   11   12 1
@<TRIPOS>SUBSTRUCTURE
     1 Z1B         1 TEMP              0 ****  ****    0 ROOT
