@<TRIPOS>MOLECULE
Z1C
   17    17     1     0     0
SMALL
RESP Charge
 
 
@<TRIPOS>ATOM
      1 N          17.0380  118.2930   16.1200 N         1 Z1C     -0.415700
      2 H          16.5930  117.9820   15.2680 H         1 Z1C      0.301795
      3 CA         17.7740  119.5480   16.0960 CT        1 Z1C      0.018800
      4 HA         17.7100  120.0130   17.0800 H1        1 Z1C      0.103162
      5 CB         19.2530  119.3510   15.7430 CT        1 Z1C     -0.091450
      6 HB2        19.7660  120.3120   15.7050 HC        1 Z1C      0.070837
      7 HB3        19.7200  118.7200   16.5000 HC        1 Z1C      0.070837
      8 CG         19.4920  118.6870   14.4260 CC        1 Z1C      0.129706
      9 ND1        20.0210  117.4180   14.3210 NA        1 Z1C     -0.303860
     10 HD1        20.2790  116.8360   15.1050 H         1 Z1C      0.363381
     11 CE1        20.1320  117.0950   13.0440 CR        1 Z1C      0.024198
     12 HE1        20.5310  116.1240   12.7500 H5        1 Z1C      0.213094
     13 NE2        19.6950  118.1100   12.3170 Y3        1 Z1C      0.020782
     14 CD2        19.2890  119.1180   13.1570 CV        1 Z1C     -0.189885
     15 HD2        18.8940  120.0460   12.7440 H4        1 Z1C      0.204520
     16 C          17.0930  120.4990   15.1330 C         1 Z1C      0.597300
     17 O          16.2480  120.0900   14.3490 O         1 Z1C     -0.567900
@<TRIPOS>BOND
     1    1    2 1
     2    1    3 1
     3    3    4 1
     4    3    5 1
     5    3   16 1
     6    5    6 1
     7    5    7 1
     8    5    8 1
     9    8    9 1
    10    8   14 1
    11    9   10 1
    12    9   11 1
    13   11   12 1
    14   11   13 1
    15   13   14 1
    16   14   15 1
    17   16   17 1
@<TRIPOS>SUBSTRUCTURE
     1 Z1C         1 TEMP              0 ****  ****    0 ROOT
