@<TRIPOS>MOLECULE
Z1D
   17    17     1     0     0
SMALL
RESP Charge
 
 
@<TRIPOS>ATOM
      1 N          14.7320  118.8170   12.1710 N         1 Z1D     -0.415700
      2 H          15.3140  119.1900   12.9070 H         1 Z1D      0.346298
      3 CA         14.8960  117.4140   11.8030 CT        1 Z1D     -0.058100
      4 HA         14.1730  117.1520   11.0310 H1        1 Z1D      0.120417
      5 CB         16.3130  117.1490   11.2600 CT        1 Z1D      0.052518
      6 HB2        17.0450  117.3450   12.0440 HC        1 Z1D      0.036286
      7 HB3        16.3990  116.1120   10.9350 HC        1 Z1D      0.036286
      8 CG         16.7020  118.0010   10.0860 CC        1 Z1D     -0.028629
      9 ND1        18.0190  118.2030    9.7230 Y4        1 Z1D     -0.016618
     10 CE1        18.0690  118.9860    8.6600 CR        1 Z1D     -0.037967
     11 HE1        19.0260  119.2640    8.2190 H5        1 Z1D      0.158478
     12 NE2        16.8320  119.3010    8.3170 NA        1 Z1D     -0.139097
     13 HE2        16.5610  119.8890    7.5410 H         1 Z1D      0.332554
     14 CD2        15.9580  118.6960    9.1920 CW        1 Z1D     -0.165754
     15 HD2        14.8840  118.8350    9.0720 H4        1 Z1D      0.179540
     16 C          14.6860  116.5540   13.0510 C         1 Z1D      0.597300
     17 O          15.4080  116.6880   14.0320 O         1 Z1D     -0.567900
@<TRIPOS>BOND
     1    1    2 1
     2    1    3 1
     3    3    4 1
     4    3    5 1
     5    3   16 1
     6    5    6 1
     7    5    7 1
     8    5    8 1
     9    8    9 1
    10    8   14 1
    11    9   10 1
    12   10   11 1
    13   10   12 1
    14   12   13 1
    15   12   14 1
    16   14   15 1
    17   16   17 1
@<TRIPOS>SUBSTRUCTURE
     1 Z1D         1 TEMP              0 ****  ****    0 ROOT
