@<TRIPOS>MOLECULE
Z2A
   17    17     1     0     0
SMALL
RESP Charge
 
 
@<TRIPOS>ATOM
      1 N          10.2640  122.5000   21.7550 N         1 Z2A     -0.415700
      2 H           9.9750  121.5430   21.8980 H         1 Z2A      0.324919
      3 CA         11.6380  122.8600   22.0680 CT        1 Z2A      0.018800
      4 HA         11.6530  123.7220   22.7350 H1        1 Z2A      0.163081
      5 CB         12.3500  121.6920   22.7610 CT        1 Z2A     -0.069770
      6 HB2        11.9420  121.5210   23.7570 HC        1 Z2A      0.071608
      7 HB3        12.2270  120.7920   22.1590 HC        1 Z2A      0.071608
      8 CG         13.8280  121.8960   22.9320 CC        1 Z2A      0.030088
      9 ND1        14.4160  122.1040   24.1610 NA        1 Z2A     -0.119011
     10 HD1        13.9170  122.1210   25.0390 H         1 Z2A      0.356089
     11 CE1        15.7170  122.2750   24.0030 CR        1 Z2A     -0.061274
     12 HE1        16.3610  122.4560   24.8630 H5        1 Z2A      0.210649
     13 NE2        15.9960  122.1830   22.7170 Y5        1 Z2A     -0.218958
     14 CD2        14.8330  121.9450   22.0250 CV        1 Z2A     -0.117315
     15 HD2        14.8570  121.8360   20.9410 H4        1 Z2A      0.189277
     16 C          12.3710  123.2160   20.7630 C         1 Z2A      0.597300
     17 O          12.8720  124.3350   20.5930 O         1 Z2A     -0.567900
@<TRIPOS>BOND
     1    1    2 1
     2    1    3 1
     3    3    4 1
     4    3    5 1
     5    3   16 1
     6    5    6 1
     7    5    7 1
     8    5    8 1
     9    8    9 1
    10    8   14 1
    11    9   10 1
    12    9   11 1
    13   11   12 1
    14   11   13 1
    15   13   14 1
    16   14   15 1
    17   16   17 1
@<TRIPOS>SUBSTRUCTURE
     1 Z2A         1 TEMP              0 ****  ****    0 ROOT
