@<TRIPOS>MOLECULE
Z2B
   17    17     1     0     0
SMALL
RESP Charge
 
 
@<TRIPOS>ATOM
      1 N          14.6670  126.9240   18.8390 N         1 Z2B     -0.415700
      2 H          14.4010  125.9700   19.0350 H         1 Z2B      0.383623
      3 CA         15.9050  127.1590   18.1120 CT        1 Z2B      0.018800
      4 HA         16.5470  127.8400   18.6710 H1        1 Z2B      0.083525
      5 CB         16.6460  125.8370   17.9190 CT        1 Z2B     -0.033570
      6 HB2        16.0620  125.0870   17.3860 HC        1 Z2B      0.042676
      7 HB3        17.5430  126.0730   17.3460 HC        1 Z2B      0.042676
      8 CG         17.1070  125.1960   19.1930 CC        1 Z2B      0.013095
      9 ND1        18.0370  125.7810   20.0260 NA        1 Z2B     -0.061962
     10 HD1        18.4330  126.6990   19.8840 H         1 Z2B      0.358664
     11 CE1        18.3190  124.9590   21.0200 CR        1 Z2B     -0.071028
     12 HE1        19.0430  125.2390   21.7850 H5        1 Z2B      0.170075
     13 NE2        17.5990  123.8630   20.8690 Y6        1 Z2B     -0.210174
     14 CD2        16.8290  123.9870   19.7370 CV        1 Z2B     -0.210170
     15 HD2        16.1570  123.1800   19.4440 H4        1 Z2B      0.223255
     16 C          15.5450  127.7410   16.7300 C         1 Z2B      0.597300
     17 O          16.2380  128.6230   16.2130 O         1 Z2B     -0.567900
@<TRIPOS>BOND
     1    1    2 1
     2    1    3 1
     3    3    4 1
     4    3    5 1
     5    3   16 1
     6    5    6 1
     7    5    7 1
     8    5    8 1
     9    8    9 1
    10    8   14 1
    11    9   10 1
    12    9   11 1
    13   11   12 1
    14   11   13 1
    15   13   14 1
    16   14   15 1
    17   16   17 1
@<TRIPOS>SUBSTRUCTURE
     1 Z2B         1 TEMP              0 ****  ****    0 ROOT
