@<TRIPOS>MOLECULE
Z2C
   17    17     1     0     0
SMALL
RESP Charge
 
 
@<TRIPOS>ATOM
      1 N          19.5390  127.2080   24.1540 N         1 Z2C     -0.415700
      2 H          20.1760  126.7650   23.5080 H         1 Z2C      0.308120
      3 CA         19.3320  126.5860   25.4560 CT        1 Z2C      0.018800
      4 HA         18.3130  126.2090   25.5400 H1        1 Z2C      0.024393
      5 CB         20.2960  125.4190   25.6120 CT        1 Z2C      0.272618
      6 HB2        21.3130  125.7540   25.4050 HC        1 Z2C      0.011236
      7 HB3        20.2490  124.9990   26.6170 HC        1 Z2C      0.011236
      8 CG         20.0150  124.2980   24.6670 CC        1 Z2C     -0.147210
      9 ND1        20.9530  123.3440   24.3370 NA        1 Z2C     -0.062676
     10 HD1        21.9000  123.3200   24.6880 H         1 Z2C      0.316394
     11 CE1        20.4140  122.4780   23.4970 CR        1 Z2C     -0.017167
     12 HE1        21.0060  121.6450   23.1190 H5        1 Z2C      0.204134
     13 NE2        19.1720  122.8240   23.2660 Y7        1 Z2C     -0.350052
     14 CD2        18.8860  123.9690   23.9920 CV        1 Z2C     -0.053533
     15 HD2        17.8940  124.4180   23.9340 H4        1 Z2C      0.144575
     16 C          19.4270  127.5030   26.6650 C         1 Z2C      0.597300
     17 O          20.4020  128.2350   26.8420 O         1 Z2C     -0.567900
@<TRIPOS>BOND
     1    1    2 1
     2    1    3 1
     3    3    4 1
     4    3    5 1
     5    3   16 1
     6    5    6 1
     7    5    7 1
     8    5    8 1
     9    8    9 1
    10    8   14 1
    11    9   10 1
    12    9   11 1
    13   11   12 1
    14   11   13 1
    15   13   14 1
    16   14   15 1
    17   16   17 1
@<TRIPOS>SUBSTRUCTURE
     1 Z2C         1 TEMP              0 ****  ****    0 ROOT
