@<TRIPOS>MOLECULE
C1A
   15    14     1     0     0
SMALL
RESP Charge
 
 
@<TRIPOS>ATOM
      1 N          14.2410  110.1490   13.3340 N         1 C1A     -0.419636
      2 H          14.6210  110.4830   12.6380 H         1 C1A      0.310967
      3 CA         13.2950  109.0780   13.0720 CT        1 C1A     -0.159300
      4 HA         12.4210  109.4130   13.3250 H1        1 C1A      0.202554
      5 CB         13.2940  108.7180   11.5850 CT        1 C1A     -0.089488
      6 HB2        13.0610  109.5050   11.0680 HC        1 C1A      0.085695
      7 HB3        14.1910  108.4600   11.3210 HC        1 C1A      0.085695
      8 CG         12.3270  107.5890   11.2370 CT        1 C1A      0.000648
      9 HG2        12.4320  107.3590   10.3000 HC        1 C1A     -0.048617
     10 HG3        12.5630  106.8010   11.7510 HC        1 C1A     -0.048617
     11 CD         10.8610  107.9400   11.5040 C         1 C1A      0.534566
     12 OE1        10.2770  108.7440   10.7280 O2        1 C1A     -0.444438
     13 OE2        10.2970  107.4080   12.4940 Y8        1 C1A     -0.648924
     14 C          13.5520  107.8240   13.9250 C         1 C1A      0.810743
     15 O          12.6070  107.1880   14.3870 Y9        1 C1A     -0.666322
@<TRIPOS>BOND
     1    1    2 1
     2    1    3 1
     3    3    4 1
     4    3    5 1
     5    3   14 1
     6    5    6 1
     7    5    7 1
     8    5    8 1
     9    8    9 1
    10    8   10 1
    11    8   11 1
    12   11   12 1
    13   11   13 1
    14   14   15 1
@<TRIPOS>SUBSTRUCTURE
     1 C1A         1 TEMP              0 ****  ****    0 ROOT
