@<TRIPOS>MOLECULE
C2A
   12    11     1     0     0
SMALL
RESP Charge
 
 
@<TRIPOS>ATOM
      1 N           4.7380  123.4950   49.3060 N         1 C2A     -0.458317
      2 H           5.3790  123.1510   48.8460 H         1 C2A      0.270799
      3 CA          3.4580  122.8440   49.1060 CT        1 C2A     -0.026179
      4 HA          2.7340  123.4290   49.3780 H1        1 C2A      0.096422
      5 CB          3.2650  122.5120   47.6290 CT        1 C2A      0.088205
      6 HB2         3.9370  121.8680   47.3540 HC        1 C2A     -0.040868
      7 HB3         2.4000  122.0900   47.5050 HC        1 C2A     -0.040868
      8 CG          3.3560  123.7440   46.7410 C         1 C2A      0.589021
      9 OD1         3.5480  124.8530   47.2900 O2        1 C2A     -0.630908
     10 OD2         3.2370  123.6040   45.4970 O2        1 C2A     -0.698103
     11 C           3.4450  121.5710   49.9430 C         1 C2A      0.515517
     12 O           2.4710  121.2880   50.6380 YA        1 C2A     -0.505549
@<TRIPOS>BOND
     1    1    2 1
     2    1    3 1
     3    3    4 1
     4    3    5 1
     5    3   11 1
     6    5    6 1
     7    5    7 1
     8    5    8 1
     9    8    9 1
    10    8   10 1
    11   11   12 1
@<TRIPOS>SUBSTRUCTURE
     1 C2A         1 TEMP              0 ****  ****    0 ROOT
