@<TRIPOS>MOLECULE
C2C
   12    11     1     0     0
SMALL
RESP Charge
 
 
@<TRIPOS>ATOM
      1 N          -3.7700  119.6130   53.9920 N         1 C2C     -0.442974
      2 H          -4.1070  119.5020   54.7760 H         1 C2C      0.290495
      3 CA         -2.7870  120.7000   53.9080 CT        1 C2C     -0.024713
      4 HA         -2.8480  121.0330   52.9990 H1        1 C2C      0.062753
      5 CB         -3.1250  121.8000   54.9290 CT        1 C2C      0.035344
      6 HB2        -3.3920  121.3870   55.7650 HC        1 C2C     -0.045877
      7 HB3        -2.3270  122.3200   55.1120 HC        1 C2C     -0.045877
      8 CG         -4.2360  122.7370   54.4570 C         1 C2C      0.612529
      9 OD1        -4.4750  122.8200   53.2320 O2        1 C2C     -0.635188
     10 OD2        -4.8600  123.4030   55.3160 O2        1 C2C     -0.694592
     11 C          -1.3330  120.2560   54.1190 C         1 C2C      0.604798
     12 O          -0.4080  120.8200   53.5240 YC        1 C2C     -0.622999
@<TRIPOS>BOND
     1    1    2 1
     2    1    3 1
     3    3    4 1
     4    3    5 1
     5    3   11 1
     6    5    6 1
     7    5    7 1
     8    5    8 1
     9    8    9 1
    10    8   10 1
    11   11   12 1
@<TRIPOS>SUBSTRUCTURE
     1 C2C         1 TEMP              0 ****  ****    0 ROOT
