@<TRIPOS>MOLECULE
C3A
   12    11     1     0     0
SMALL
RESP Charge
 
 
@<TRIPOS>ATOM
      1 N           9.4510  128.5380    5.0830 N         1 C3A     -0.339471
      2 H           8.6660  128.8430    5.2560 H         1 C3A      0.240097
      3 CA         10.5230  129.1600    5.8590 CT        1 C3A     -0.083335
      4 HA         11.2090  129.4800    5.2520 H1        1 C3A      0.054859
      5 CB          9.9690  130.3460    6.6580 CT        1 C3A     -0.050712
      6 HB2         9.2650  130.0330    7.2470 HC        1 C3A      0.028973
      7 HB3        10.6710  130.7070    7.2220 HC        1 C3A      0.028973
      8 CG          9.4260  131.4460    5.7710 C         1 C3A      0.634313
      9 OD1        10.2400  132.1410    5.1360 O2        1 C3A     -0.680685
     10 OD2         8.1900  131.6210    5.7000 O2        1 C3A     -0.684157
     11 C          11.1390  128.1280    6.8170 C         1 C3A      0.534414
     12 O          12.3160  128.2150    7.1690 YE        1 C3A     -0.518439
@<TRIPOS>BOND
     1    1    2 1
     2    1    3 1
     3    3    4 1
     4    3    5 1
     5    3   11 1
     6    5    6 1
     7    5    7 1
     8    5    8 1
     9    8    9 1
    10    8   10 1
    11   11   12 1
@<TRIPOS>SUBSTRUCTURE
     1 C3A         1 TEMP              0 ****  ****    0 ROOT
