@<TRIPOS>MOLECULE
C3B
    7     6     1     0     0
SMALL
RESP Charge
 
 
@<TRIPOS>ATOM
      1 N          17.2740  129.2100    3.0340 N         1 C3B     -0.320275
      2 H          16.6720  129.5390    2.5150 H         1 C3B      0.307574
      3 CA         17.6080  127.8220    2.7830 CT        1 C3B     -0.088541
      4 HA2        17.0490  127.4780    2.0690 H1        1 C3B      0.111374
      5 HA3        18.5270  127.7600    2.4790 H1        1 C3B      0.111374
      6 C          17.4270  126.9720    4.0190 C         1 C3B      0.352529
      7 O          16.4250  127.1200    4.7260 YF        1 C3B     -0.462703
@<TRIPOS>BOND
     1    1    2 1
     2    1    3 1
     3    3    4 1
     4    3    5 1
     5    3    6 1
     6    6    7 1
@<TRIPOS>SUBSTRUCTURE
     1 C3B         1 TEMP              0 ****  ****    0 ROOT
