@<TRIPOS>MOLECULE
C4B
    7     6     1     0     0
SMALL
RESP Charge
 
 
@<TRIPOS>ATOM
      1 N          20.8190  107.3120   16.6050 N         1 C4B     -0.397936
      2 H          20.6480  107.7980   15.9160 H         1 C4B      0.285391
      3 CA         19.9570  106.1650   16.7950 CT        1 C4B      0.043585
      4 HA2        19.4530  105.9910   15.9840 H1        1 C4B      0.081576
      5 HA3        20.4910  105.3750   16.9720 H1        1 C4B      0.081576
      6 C          19.0090  106.4170   17.9490 C         1 C4B      0.185251
      7 O          18.8330  107.5580   18.3650 YJ        1 C4B     -0.127489
@<TRIPOS>BOND
     1    1    2 1
     2    1    3 1
     3    3    4 1
     4    3    5 1
     5    3    6 1
     6    6    7 1
@<TRIPOS>SUBSTRUCTURE
     1 C4B         1 TEMP              0 ****  ****    0 ROOT
