@<TRIPOS>MOLECULE
C4C
    7     6     1     0     0
SMALL
RESP Charge
 
 
@<TRIPOS>ATOM
      1 N          17.2360  107.0890   21.4110 N         1 C4C     -0.227454
      2 H          16.4710  107.3410   21.1090 H         1 C4C      0.145382
      3 CA         17.6750  107.7720   22.6170 CT        1 C4C      0.038134
      4 HA2        16.8960  108.0710   23.1120 H1        1 C4C      0.072571
      5 HA3        18.1460  107.1410   23.1830 H1        1 C4C      0.072571
      6 C          18.5740  108.9600   22.3500 C         1 C4C      0.051971
      7 O          18.7680  109.3530   21.2010 YK        1 C4C     -0.017635
@<TRIPOS>BOND
     1    1    2 1
     2    1    3 1
     3    3    4 1
     4    3    5 1
     5    3    6 1
     6    6    7 1
@<TRIPOS>SUBSTRUCTURE
     1 C4C         1 TEMP              0 ****  ****    0 ROOT
